Circuit: * C:\Users\atsm\Documents\Memristor Modeling\Memristor-Modeling\LTSpice Source\memristor_Logic_gates.asc

WARNING: Less than two connections to node u1:flux.  This node is used by e:u1:flux.
WARNING: Less than two connections to node u1:charge.  This node is used by e:u1:charge.
WARNING: Less than two connections to node u2:flux.  This node is used by e:u2:flux.
WARNING: Less than two connections to node u2:charge.  This node is used by e:u2:charge.
WARNING: Less than two connections to node u3:flux.  This node is used by e:u3:flux.
WARNING: Less than two connections to node u3:charge.  This node is used by e:u3:charge.
WARNING: Less than two connections to node u4:flux.  This node is used by e:u4:flux.
WARNING: Less than two connections to node u4:charge.  This node is used by e:u4:charge.
Direct Newton iteration for .op point succeeded.

Date: Thu Mar  9 13:17:39 2023
Total elapsed time: 0.311 seconds.

tnom = 27
temp = 27
method = modified trap
totiter = 9431
traniter = 9428
tranpoints = 3558
accept = 3446
rejected = 112
matrix size = 34
fillins = 12
solver = Normal
Avg thread counts: 1.1/1.2/1.2/1.1
Matrix Compiler1: 1.44 KB object code size  0.5/0.4/[0.3]
Matrix Compiler2: 2.24 KB object code size  0.3/0.7/[0.3]

